          13

 Au   -2.8142308005000003E-008  -2.5015383990000001E-008  -1.8761540025000001E-008
 Au   -4.3736181942750008E-006  -7.4772138450000018E-009   3.9215166609152110     
 Au    1.0838786111112317       -3.3358413410126206        1.7537567713486448     
 Au   -2.8376380799621290       -2.0616633677541665        1.7537524201742507     
 Au   -2.8376381168423293        2.0616632826487451        1.7537524017334838     
 Au    1.0838785514378164        3.3358413260575466        1.7537567415108621     
 Au    3.5075091767643887        1.4200114095000002E-008   1.7537594420815512     
 Au   -1.0838786077224283       -3.3358413760883185       -1.7537567790339381     
 Au   -3.5075092330490047       -6.4230882075000000E-008  -1.7537594796046272     
 Au   -1.0838786673958478        3.3358412909818527       -1.7537568088717210     
 Au    2.8376380236775129        2.0616633177233985       -1.7537524576973267     
 Au    2.8376380605577132       -2.0616633326795131       -1.7537524392565638     
 Au    4.3173335782650000E-006  -4.2553554135000000E-008  -3.9215166984382912     
